#!MC 1410
$!VarSet |MFBD| = 'C:\Program Files\Tecplot\Tecplot 360 EX 2016 R2'
$!READDATASET  '"FILENAME_File" "d:\Asus\Documents\CFX_013.res"' DATASETREADER = 'ANSYS CFX (FEA)'
$!RemoveVar |MFBD|
$!Quit